26
     Final energy   =   -1652.3311923987 Ry
Au       0.004347080  -0.016319053  -0.011027379
Au       4.092781117  -0.025116285  -0.003913843
Au      -0.094365171  -0.114032186   4.326018460
Au       4.110513067  -0.038951786   4.132836449
Au       2.044483714   6.128622498  -0.005855490
Au       6.120684364   6.141160701  -0.001217092
Au       2.055562502   6.106861317   4.134584555
Au       6.092136221   6.112217494   4.148898554
Au       2.026358295  -0.009996623   2.087231048
Au       6.157798702  -0.007603493   2.081727356
Au       0.012361879   6.176671866   2.081443087
Au       4.073222793   6.142933233   2.055893206
Au      -0.004230310   4.098973331  -0.006092276
Au       4.077346318   4.085279240  -0.002208343
Au      -0.017490469   4.116067085   4.134544367
Au       4.094410730   4.103276360   4.147947657
Au       2.035899744   2.029424620  -0.012993206
Au       6.106129255   2.038343208  -0.003905492
Au       2.122299428   2.115280655   4.325338544
Au       6.083203631   2.050156315   4.132445907
Au       2.025248058   4.047476465   2.079463067
Au       6.121604684   4.080555255   2.055900081
Au       0.012126586   2.021740051   2.086932991
Au       4.037175198   2.018466167   2.080240648
C        1.010461105   1.002119928   5.732063043
O        1.008430473   1.004892642   6.905431107
