24
     Final energy   =   -1608.9253322592 Ry
Au       0.000000000   0.000000000  -0.056004667
Au       4.078250000   0.000000000  -0.056029350
Au       0.000000000   0.000000000   4.134294335
Au       4.078250000   0.000000000   4.134275058
Au       2.039130455   6.117369545  -0.056028526
Au       6.117369545   6.117369545  -0.056028526
Au       2.039104426   6.117395574   4.134276442
Au       6.117395574   6.117395574   4.134276442
Au       2.039113127   0.000000000   2.039131418
Au       6.117386873   0.000000000   2.039131418
Au      -0.000000000   6.117386873   2.039131418
Au       4.078250000   6.117382031   2.039122721
Au       0.000000000   4.078250000  -0.056029350
Au       4.078250000   4.078250000  -0.056050829
Au       0.000000000   4.078250000   4.134275058
Au       4.078250000   4.078250000   4.134261525
Au       2.039130455   2.039130455  -0.056028526
Au       6.117369545   2.039130455  -0.056028526
Au       2.039104426   2.039104426   4.134276442
Au       6.117395574   2.039104426   4.134276442
Au       2.039117969   4.078250000   2.039122721
Au       6.117382031   4.078250000   2.039122721
Au      -0.000000000   2.039113127   2.039131418
Au       4.078250000   2.039117969   2.039122721
