26
     Final energy   =   -1652.3426923434 Ry
Au       0.000000000   0.000000000  -0.086221994
Au       4.078250000   0.000000000  -0.027053374
Au       0.000000000   0.000000000   4.257586704
Au       4.078250000   0.000000000   4.116907357
Au       2.025010099   6.131489901  -0.060774957
Au       6.131489901   6.131489901  -0.060774957
Au       2.101019360   6.055480640   4.125214334
Au       6.055480640   6.055480640   4.125214334
Au       2.005645536   0.000000000   2.081940826
Au       6.150854464   0.000000000   2.081940826
Au       0.000000000   6.150854464   2.081940826
Au       4.078250000   6.122300354   2.006716310
Au       0.000000000   4.078250000  -0.027053374
Au       4.078250000   4.078250000  -0.060034115
Au       0.000000000   4.078250000   4.116907357
Au       4.078250000   4.078250000   4.154414283
Au       2.025010099   2.025010099  -0.060774957
Au       6.131489901   2.025010099  -0.060774957
Au       2.101019360   2.101019360   4.125214334
Au       6.055480640   2.101019360   4.125214334
Au       2.034199646   4.078250000   2.006716310
Au       6.122300354   4.078250000   2.006716310
Au       0.000000000   2.005645536   2.081940826
Au       4.078250000   2.034199646   2.006716310
C        0.000000000   0.000000000   6.236531222
O        0.000000000   0.000000000   7.387359883
