26
     Final energy   =   -1652.3314543486 Ry
Au      -0.074134260   0.058218930  -0.011773868
Au       4.012603105   0.048543284  -0.005919037
Au      -0.167492176  -0.032371243   4.322951099
Au       4.034102692   0.034991379   4.135270455
Au       1.965401715   6.200915039  -0.006696563
Au       6.041090836   6.214072754  -0.002866645
Au       1.977075310   6.184442564   4.136160801
Au       6.019004197   6.192340199   4.150484294
Au       1.948999800   0.064084224   2.087950630
Au       6.077981387   0.066990716   2.080253267
Au      -0.066026610   6.251999419   2.079839486
Au       3.996001887   6.217916112   2.056638352
Au      -0.082574638   4.171316517  -0.004878032
Au       3.999837074   4.158036603  -0.001456398
Au      -0.095820333   4.194596626   4.134999565
Au       4.023137144   4.185186586   4.151948449
Au       1.957148392   2.103181710  -0.009851448
Au       6.025295598   2.111466308  -0.002562633
Au       2.051266777   2.197686141   4.321493574
Au       6.006411285   2.125617590   4.134544342
Au       1.948754640   4.124421566   2.081780920
Au       6.044771962   4.155775404   2.057604014
Au      -0.065716801   2.097524737   2.088968826
Au       3.960331292   2.094205597   2.081971131
C        0.936782800   1.090399820   5.725708780
O        0.934265940   1.096940419   6.899163635
