22
     Final energy   =   -1384.2351646928 Ry
Au       0.000000000   0.141256271   0.038907976
Au       0.000000000   0.107507094   5.959322273
Au       2.883758000   0.113710263   2.868668924
Au       2.883758000   4.242925922   2.855692923
Au       0.000000000   4.196263751  -0.024672816
Au       0.000000000   4.200114380   5.782334799
Au       1.444612279   2.164659288   1.343561631
Au       4.325147385   2.187893982   4.404362841
Au       4.327131589   6.247907907   4.460037841
Au       1.444493097   6.253067004   1.307578777
Au       4.322903721   2.164659288   1.343561631
Au       1.442368615   2.187893982   4.404362841
Au       1.440384411   6.247907907   4.460037841
Au       4.323022903   6.253067004   1.307578777
Au       0.000000000   0.117319772   3.030754447
Au       2.883758000   0.141370171  -0.038304243
Au       2.883758000   0.159185081   5.734533779
Au       2.883758000   4.192361879  -0.047683745
Au       2.883758000   4.196982962   5.783248749
Au       0.000000000   4.229257033   2.865034130
C        0.000000000   0.507761069   7.885677040
O        0.000000000   0.842427990   8.988325587
