18
     Final energy   =   -1116.1834279766 Ry
Au       0.007674295   0.008112361  -0.220403111
Au      -0.089982636  -0.070907967   7.048978620
Au       2.897275814   1.688935191   2.262077385
Au       0.019031839   3.308920223   4.669474377
Au       2.898957232   0.005353148  -0.203068477
Au       2.851904467  -0.136494704   7.336099112
Au       0.008745364   1.671563289   2.239304976
Au       2.857248118   3.359357495   4.754791645
Au       1.459361224   4.170519269   2.252670441
Au       4.298057753   0.838799939   4.659975671
Au       1.451997045   2.503594076  -0.213130166
Au       1.341727236   2.468803113   7.311549309
Au       4.337104019   4.172858501   2.276681899
Au       1.436749939   0.841259492   4.670505507
Au       4.337036221   2.503728121  -0.230239207
Au       4.302561782   2.436253480   7.091679127
C        2.126352468   1.184383876   8.815854584
O        2.114542820   1.208195100   9.987083307
