16
     Final energy   =   -1072.7988860160 Ry
Au       0.000000000   0.000237024  -0.150736934
Au       0.000000000  -0.000236525   7.214513641
Au       2.883758000   1.665651062   2.322416120
Au       0.000000000   3.329165997   4.741283378
Au       2.883758000   0.000238767  -0.150729837
Au       2.883758000  -0.000243247   7.214502780
Au       0.000000000   1.665652651   2.322414489
Au       2.883758000   3.329162133   4.741282284
Au       1.441899080   4.163062955   2.322412110
Au       4.325617322   0.831754020   4.741283651
Au       1.441893902   2.497645593  -0.150731853
Au       1.441892656   2.497170503   7.214507132
Au       4.325616920   4.163062955   2.322412110
Au       1.441898678   0.831754020   4.741283651
Au       4.325622098   2.497645593  -0.150731853
Au       4.325623344   2.497170503   7.214507132
