22
     Final energy   =   -1384.1920582486 Ry
Au      -0.012777631   0.004287416  -0.093732476
Au      -0.020838081   0.005472766   5.721803455
Au       2.867799229   0.003506374   2.817665633
Au       2.868072593   4.083446155   2.816281748
Au      -0.012632850   4.081901854  -0.093125060
Au      -0.020420809   4.082079626   5.721069882
Au       1.428082120   2.043075683   1.258862867
Au       4.306584548   2.043467121   4.364976920
Au       4.304460293   6.122682316   4.374353692
Au       1.428677380   6.121569206   1.258333382
Au       4.312445965   2.043085554   1.257430407
Au       1.422196963   2.043499751   4.366205746
Au       1.424264858   6.122283096   4.373460888
Au       4.311800168   6.121642336   1.257893622
Au      -0.015994441   0.002390219   2.814062081
Au       2.870789856   0.004940506  -0.091603295
Au       2.862905802   0.009141403   5.730181108
Au       2.870617604   4.081332078  -0.092442831
Au       2.863408645   4.079030726   5.726807957
Au      -0.016211350   4.084782562   2.814205783
C        2.262417264   1.928969668   8.924596158
O        1.266963878   1.982913583   9.485634336
