22
     Final energy   =   -1384.2400513788 Ry
Au      -0.004263248   0.000000000   0.024741666
Au      -0.029732661   0.000000000   6.039784155
Au       2.886676411   0.000000000   2.971627590
Au       2.907141557   4.078250000   2.876983114
Au      -0.004769241   4.078250000  -0.010057261
Au       0.009770784   4.078250000   5.750112092
Au       1.441885666   2.042371043   1.336897407
Au       4.334493678   1.980291011   4.503367213
Au       4.334493678   6.176208989   4.503367213
Au       1.441885666   6.114128957   1.336897407
Au       4.326561992   2.029727468   1.360421049
Au       1.449913203   2.048051100   4.394330420
Au       1.449913203   6.108448900   4.394330420
Au       4.326561992   6.126772532   1.360421049
Au       0.010516050   0.000000000   2.972419379
Au       2.887881789   0.000000000   0.024410595
Au       2.933236871   0.000000000   6.037378503
Au       2.888052964   4.078250000  -0.011919860
Au       2.892918806   4.078250000   5.752096328
Au      -0.017413522   4.078250000   2.878917453
C        1.453711876   0.000000000   7.522241665
O        1.453174485   0.000000000   8.694154407
