22
     Final energy   =   -1384.2491817193 Ry
Au       0.000000000   0.000000000   0.030698578
Au       0.000000000   0.000000000   5.938375838
Au       2.883758000   0.000000000   2.863623653
Au       2.883758000   4.078250000   2.848183610
Au       0.000000000   4.078250000  -0.024419297
Au       0.000000000   4.078250000   5.781834547
Au       1.444792140   2.032608045   1.322968057
Au       4.324904952   2.052459199   4.427962899
Au       4.324904952   6.104040801   4.427962899
Au       1.444792140   6.123891955   1.322968057
Au       4.322723860   2.032608045   1.322968057
Au       1.442611048   2.052459199   4.427962899
Au       1.442611048   6.104040801   4.427962899
Au       4.322723860   6.123891955   1.322968057
Au       0.000000000   0.000000000   3.033400261
Au       2.883758000   0.000000000  -0.050009343
Au       2.883758000   0.000000000   5.728200799
Au       2.883758000   4.078250000  -0.050075057
Au       2.883758000   4.078250000   5.787214249
Au       0.000000000   4.078250000   2.861863382
C        0.000000000   0.000000000   7.904208107
O        0.000000000   0.000000000   9.056096851
