18
     Final energy   =   -1116.1837562732 Ry
Au      -0.018559589   0.048094457  -0.213821605
Au       0.035276169   0.412627997   7.343188577
Au       2.859798638   1.734021478   2.266466965
Au      -0.012648423   3.500733414   4.626059672
Au       2.864856967   0.047994003  -0.213448674
Au       2.815410062   0.420803935   7.337287742
Au      -0.003666520   1.736388528   2.270788920
Au       2.864958261   3.504122421   4.623819770
Au       1.428654096   4.248760376   2.247309131
Au       4.312309898   0.987653319   4.670742085
Au       1.421808856   2.540341192  -0.216327590
Au       1.419380521   2.922853857   7.122096581
Au       4.313268392   4.237286827   2.221516529
Au       1.428132952   0.981315334   4.811332661
Au       4.307818334   2.540445411  -0.217105816
Au       4.304532679   2.893862082   6.992507018
C        4.307041709   0.397411931   8.832850637
O        4.307971998   0.408517436  10.004622401
