16
     Final energy   =    -981.9385081972 Ry
Au       2.883758000   0.604916234  -0.198100677
Au       0.000000000   5.126481366  -1.317248699
Au       2.883758000   2.232480091  -3.830075838
Au       0.000000000  -0.318313403  -5.074439571
Au       0.000000000   0.705625578  -0.301187179
Au       2.883758000   5.135789618  -1.295873888
Au       0.000000000   2.226191119  -3.834042575
Au       2.883758000  -0.323359433  -5.090212948
Au       4.372624501   3.110442439  -0.123769931
Au       1.451290260   0.107553921  -2.645719965
Au       4.328290433   4.517755541  -4.217394281
Au       1.394891499   3.110442439  -0.123769931
Au       4.316225740   0.107553921  -2.645719965
Au       1.439225567   4.517755541  -4.217394281
C        2.883758000   2.219128467   1.183156634
O        2.883758000   2.274420561   2.368025097
