16
     Final energy   =    -981.9795639953 Ry
Au       2.831694233   0.661071281   0.042809140
Au       0.009002079   5.206066760  -1.496403977
Au       2.880810264   2.402871633  -3.851146341
Au       0.014773963  -0.171416856  -4.942398433
Au       0.052063767   0.661071281   0.042809140
Au       2.874755921   5.206066760  -1.496403977
Au       0.002947736   2.402871633  -3.851146341
Au       2.868984037  -0.171416856  -4.942398433
Au       4.325637000   2.897203563  -1.247048244
Au       1.441879000   0.363660775  -2.449599680
Au       4.325637000   4.571569425  -4.711858472
Au       1.441879000   2.906579661  -0.993303326
Au       4.325637000   0.302363917  -2.543487109
Au       1.441879000   4.558691411  -4.713017342
C        4.325637000   0.600880734   1.508434095
O        4.325637000   0.565874877   2.680391302
