22
a     Final energy   =   -1384.2331376887 Ry
Au    2.883763    4.490109   -0.517578
Au    0.000004    7.181770    0.216149
Au    0.000004    1.115180    2.766381
Au    2.883763    3.847533    3.859581
Au    0.000004    6.603099    3.974879
Au    0.000004    4.498523   -0.492869
Au    2.883763    7.163301    0.212500
Au    2.883763    1.159929    2.841612
Au    0.000004    3.825186    3.761398
Au    2.883763    6.614783    3.956934
Au    4.312265   -0.271852    0.756094
Au    1.447691    2.485888    0.761608
Au    4.313343    5.312792    1.869325
Au    1.437898    8.914956    4.321324
Au    1.494285    1.897382    5.311609
Au    1.455261   -0.271853    0.756090
Au    4.319835    2.485889    0.761612
Au    1.454183    5.312791    1.869321
Au    4.329628    8.914957    4.321328
Au    4.273241    1.897383    5.311613
 C    1.494285    4.830797    6.789869
 O    1.494285    4.830797    7.961519
