20
     Final energy   =   -1340.7693287556 Ry
Au       2.883763000   5.041015150   0.000679908
Au       0.000004000   7.693866104   0.901725648
Au       0.000004000   0.856586813   2.385843712
Au       2.883763000   3.727530366   3.869987674
Au       0.000004000   6.380380192   4.771016036
Au       0.000004000   5.041013413   0.000680012
Au       2.883763000   7.693867477   0.901725637
Au       2.883763000   0.856587768   2.385843718
Au       0.000004000   3.727529421   3.869986355
Au       2.883763000   6.380382092   4.771016135
Au       4.325643386   0.186915693   0.000685818
Au       1.441883199   2.839786120   0.901715622
Au       4.325642813   5.710706315   2.385848126
Au       1.441882755   8.581586619   3.869959729
Au       1.441882998   1.526279356   4.770993289
Au       1.441882614   0.186914693   0.000681818
Au       4.325642801   2.839787120   0.901719622
Au       1.441883187   5.710705315   2.385844126
Au       4.325643245   8.581587619   3.869963729
Au       4.325643002   1.526280356   4.770997289
